/*--------------------------------*- C++ -*----------------------------------*\
| =========                 |                                                 |
| \\      /  F ield         | OpenFOAM: The Open Source CFD Toolbox           |
|  \\    /   O peration     | Version:  2.3.x                                 |
|   \\  /    A nd           | Web:      www.OpenFOAM.org                      |
|    \\/     M anipulation  |                                                 |
|*---------------------------------------------------------------------------*|
|  File created by CFD support s.r.o., Fri Sep 27 07:07:50 2013               |
|                    http://www.cdfsupport.com                                |
\*---------------------------------------------------------------------------*/
FoamFile
{
    version     2.3;
    format      ascii;
    class       dictionary;
    location    "system";
    object      surfaceFeatureExtractDict;
}
// * * * * * * * * * * * * * * * * * * * * * * * * * * * * * * * * * * * * * //

cylinderp.obj
{
    // How to obtain raw features (extractFromFile || extractFromSurface)
    extractionMethod    extractFromSurface;

    extractFromSurfaceCoeffs
    {
        // Mark edges whose adjacent surface normals are at an angle less
        // than includedAngle as features
        // - 0  : selects no edges
        // - 180: selects all edges
        includedAngle   180;
    }

    subsetFeatures
    {
        // Keep nonManifold edges (edges with >2 connected faces)
        nonManifoldEdges       no;

        // Keep open edges (edges with 1 connected face)
        openEdges       no;
    }


    // Write options

        // Write features to obj format for postprocessing
        writeObj                yes;
}


// ************************************************************************* //

