/*--------------------------------*- C++ -*----------------------------------*\
  =========                 |
  \\      /  F ield         | OpenFOAM: The Open Source CFD Toolbox
   \\    /   O peration     | Website:  https://openfoam.org
    \\  /    A nd           | Version:  7  
     \\/     M anipulation  |
\*---------------------------------------------------------------------------*/
FoamFile
{
    version     2.0;
    format      ascii;
    class       dictionary;
    location    "system";
    object      fvSolution;
}
// * * * * * * * * * * * * * * * * * * * * * * * * * * * * * * * * * * * * * //

solvers
{
    "rho.*"
    {
        solver          PCG;
        preconditioner  DIC;
        tolerance       1E-8;
        relTol          0.01;
    }

    p_rgh
    {
        solver          PCG;
        preconditioner  DIC;
        tolerance       1e-8;
        relTol          0.01;
    }

    p_rghFinal
    {
        $p_rgh;
        relTol          0;
    }

    "(U|k|nuTilda|s1|h)"
    {
        solver          smoothSolver;
        smoother        symGaussSeidel;
        tolerance       1e-08;
        relTol          0.1;
    }

    "(U|k|nuTilda|h)Final"
    {
        $U;
        tolerance       1e-07;
        relTol          0;
    }
}

PIMPLE
{
    nOuterCorrectors 2;
    nCorrectors     2;
    nNonOrthogonalCorrectors 0;
   // pRefCell        1001;
   // pRefValue       0;
}


// ************************************************************************* //
